[TITLE]
Water Trial

[JUNCTIONS]
;ID               Elevation       Demand        Pattern
J1                0              0             
J2                0              10             
J3                0              0             
J4                0              20             
J5                0              0             
J6                0              25           

[RESERVOIRS]
;ID       Head
Res1      50

[COORDINATES]
;ID       X-Coord   Y-Coord
Res1      0         0
J1        50        0
J2        50        50
J3        100       50
J4        100       0
J5        150       50
J6        150       0      

[PIPES]
;ID       Node1   Node2   Length   Diameter   Roughness   MinorLoss   Status
P1        Res1    J1      200      100        10        0          OPEN
P2        J1      J2      200      200        10        0          OPEN
P3        J1      J4      200      300        10        0          OPEN
P4        J2      J3      300      400        10        0          OPEN
P5        J2      J4      400      500        10        0          OPEN
P6        J3      J4      500      600        10        0          OPEN
P7        J3      J5      600      700        10        0          OPEN
P8        J4      J6      700      800        10        0          OPEN

[OPTIONS]
Units           LPS
Headloss        D-W
Viscosity       1.5
Trials          5
Accuracy        0.004
CHECKFREQ       5
MAXCHECK        10
DAMPLIMIT       0.0

[END]
